XFLR5 v6.09.04 release candidate

 Calculated polar for: Cularis 5deg

 1 1 Reynolds number fixed          Mach number fixed         

 xtrf =   1.000 (top)        1.000 (bottom)
 Mach =   0.000     Re =     0.500 e 6     Ncrit =   9.000

  alpha     CL        CD       CDp       Cm    Top Xtr Bot Xtr   Cpmin    Chinge    XCp    
 ------- -------- --------- --------- -------- ------- ------- -------- --------- ---------
  -6.000  -0.0493   0.01438   0.00834  -0.1154  0.9025  0.0255  -2.1113   0.0000  -2.1511
  -5.000   0.0558   0.01259   0.00634  -0.1136  0.8939  0.0232  -1.5988   0.0000   2.3289
  -4.000   0.1666   0.01144   0.00488  -0.1123  0.8832  0.0222  -1.0851   0.0000   0.9347
  -3.000   0.2747   0.01027   0.00427  -0.1115  0.8717  0.1915  -0.5730   0.0000   0.6602
  -2.000   0.3862   0.00926   0.00358  -0.1105  0.8547  0.3224  -0.6238   0.0000   0.5377
  -1.000   0.4965   0.00805   0.00290  -0.1092  0.8291  0.5149  -0.7346   0.0000   0.4699
   0.000   0.6071   0.00741   0.00248  -0.1079  0.7931  0.6031  -0.8667   0.0000   0.4265
   1.000   0.7005   0.00762   0.00247  -0.1029  0.6322  0.7605  -1.0105   0.0000   0.3945
   3.000   0.8919   0.00927   0.00363  -0.0967  0.4149  1.0000  -1.3888   0.0000   0.3541
   4.000   0.9866   0.01060   0.00453  -0.0941  0.3191  1.0000  -1.6313   0.0000   0.3400
   5.000   1.0755   0.01235   0.00571  -0.0908  0.2169  1.0000  -2.1043   0.0000   0.3279
   6.000   1.1640   0.01405   0.00703  -0.0874  0.1457  1.0000  -2.6299   0.0000   0.3174
   7.000   1.2402   0.01628   0.00886  -0.0823  0.0769  1.0000  -3.2363   0.0000   0.3074
   8.000   1.2956   0.01991   0.01200  -0.0746  0.0099  1.0000  -3.9131   0.0000   0.2973
   9.000   1.3671   0.02211   0.01444  -0.0695  0.0075  1.0000  -4.7295   0.0000   0.2891
  10.000   1.4242   0.02536   0.01786  -0.0632  0.0045  1.0000  -5.6064   0.0000   0.2811
  11.000   1.4697   0.02954   0.02232  -0.0565  0.0029  1.0000  -6.4725   0.0000   0.2735
  12.000   1.5058   0.03467   0.02783  -0.0502  0.0023  1.0000  -7.2779   0.0000   0.2666
  13.000   1.5352   0.04086   0.03436  -0.0452  0.0022  1.0000  -8.0951   0.0000   0.2608
  14.000   1.5462   0.04990   0.04383  -0.0420  0.0019  1.0000  -8.7767   0.0000   0.2564


