XFLR5 v6.09.04 release candidate

 Calculated polar for: Cularis -5deg

 1 1 Reynolds number fixed          Mach number fixed         

 xtrf =   1.000 (top)        1.000 (bottom)
 Mach =   0.000     Re =     0.200 e 6     Ncrit =   9.000

  alpha     CL        CD       CDp       Cm    Top Xtr Bot Xtr   Cpmin    Chinge    XCp    
 ------- -------- --------- --------- -------- ------- ------- -------- --------- ---------
  -5.000  -0.5771   0.02650   0.01963  -0.0155  0.9826  0.0310  -3.0406   0.0000   0.2176
  -4.000  -0.4436   0.01865   0.01092  -0.0191  0.9294  0.0256  -2.6703   0.0000   0.2016
  -3.000  -0.3518   0.01592   0.00777  -0.0140  0.8749  0.0240  -2.1977   0.0000   0.2056
  -2.000  -0.2555   0.01445   0.00577  -0.0097  0.8307  0.0245  -1.6861   0.0000   0.2077
  -1.000  -0.1611   0.01270   0.00462  -0.0060  0.7916  0.2154  -1.1935   0.0000   0.2092
   0.000  -0.0713   0.01125   0.00437  -0.0017  0.7541  0.5482  -0.6919   0.0000   0.2250
   1.000   0.0172   0.01133   0.00539   0.0066  0.7144  0.8815  -0.5016   0.0000  -0.1573
   2.000   0.1258   0.01140   0.00516   0.0092  0.6743  0.9156  -0.6112   0.0000   0.1689
   3.000   0.3901   0.01158   0.00511  -0.0184  0.6165  1.0000  -0.8632   0.0000   0.2919
   4.000   0.4903   0.01163   0.00496  -0.0165  0.5584  1.0000  -1.0232   0.0000   0.2778
   5.000   0.5899   0.01196   0.00508  -0.0147  0.4974  1.0000  -1.2184   0.0000   0.2683
   6.000   0.6878   0.01249   0.00557  -0.0129  0.4321  1.0000  -1.4434   0.0000   0.2612
   7.000   0.7801   0.01337   0.00628  -0.0103  0.3618  1.0000  -1.7790   0.0000   0.2547
   8.000   0.8639   0.01443   0.00731  -0.0065  0.2915  1.0000  -2.2650   0.0000   0.2479
   9.000   0.9356   0.01577   0.00867  -0.0008  0.2334  1.0000  -2.7478   0.0000   0.2401
  10.000   0.9963   0.01737   0.01023   0.0063  0.1743  1.0000  -3.4398   0.0000   0.2315
  11.000   1.0693   0.01950   0.01240   0.0106  0.1287  1.0000  -4.2265   0.0000   0.2266
  12.000   1.1379   0.02238   0.01542   0.0142  0.0884  1.0000  -5.0202   0.0000   0.2225
  13.000   1.1759   0.02709   0.02023   0.0195  0.0476  1.0000  -5.6423   0.0000   0.2167
  14.000   1.1767   0.03642   0.02987   0.0213  0.0311  1.0000  -5.9881   0.0000   0.2133


