XFLR5 v6.09.04 release candidate

 Calculated polar for: Cularis -5deg

 1 1 Reynolds number fixed          Mach number fixed         

 xtrf =   1.000 (top)        1.000 (bottom)
 Mach =   0.000     Re =     0.500 e 6     Ncrit =   9.000

  alpha     CL        CD       CDp       Cm    Top Xtr Bot Xtr   Cpmin    Chinge    XCp    
 ------- -------- --------- --------- -------- ------- ------- -------- --------- ---------
  -6.000  -0.6481   0.04218   0.03815  -0.0171  0.8675  0.0423  -2.8717   0.0000   0.2180
  -3.000  -0.3914   0.01388   0.00687  -0.0036  0.7640  0.0245  -2.2571   0.0000   0.2363
  -2.000  -0.2877   0.01200   0.00474  -0.0012  0.7395  0.0226  -1.7257   0.0000   0.2422
  -1.000  -0.1789   0.01078   0.00324   0.0005  0.7146  0.0215  -1.2051   0.0000   0.2498
   0.000  -0.0729   0.00937   0.00231   0.0020  0.6834  0.1832  -0.6856   0.0000   0.2774
   1.000   0.0331   0.00836   0.00181   0.0032  0.6410  0.3747  -0.5158   0.0000   0.1374
   2.000   0.1247   0.00695   0.00177   0.0076  0.5966  0.8139  -0.6146   0.0000   0.1809
   3.000   0.2363   0.00723   0.00182   0.0080  0.5467  0.8368  -0.7489   0.0000   0.2091
   4.000   0.3177   0.00792   0.00273   0.0175  0.4966  0.9439  -0.8791   0.0000   0.1876
   5.000   0.4318   0.00839   0.00304   0.0173  0.4316  0.9608  -1.0662   0.0000   0.2022
   6.000   0.5391   0.00892   0.00328   0.0173  0.3563  0.9671  -1.2814   0.0000   0.2097
   7.000   0.6554   0.00971   0.00385   0.0150  0.2810  0.9717  -1.5554   0.0000   0.2181
   8.000   0.7694   0.01094   0.00472   0.0126  0.1953  0.9791  -2.0843   0.0000   0.2237
   9.000   0.8884   0.01248   0.00593   0.0087  0.1220  0.9870  -2.6820   0.0000   0.2293
  10.000   1.0041   0.01531   0.00820   0.0038  0.0303  0.9978  -3.4879   0.0000   0.2341
  11.000   1.0698   0.01745   0.01029   0.0092  0.0100  1.0000  -4.2261   0.0000   0.2279
  12.000   1.1500   0.01959   0.01266   0.0118  0.0058  1.0000  -5.1139   0.0000   0.2248
  13.000   1.2081   0.02282   0.01606   0.0160  0.0040  1.0000  -6.0381   0.0000   0.2201
  14.000   1.2494   0.02780   0.02142   0.0184  0.0029  1.0000  -6.8307   0.0000   0.2168


