XFLR5 v6.09.04 release candidate

 Calculated polar for: Cularis

 1 1 Reynolds number fixed          Mach number fixed         

 xtrf =   1.000 (top)        1.000 (bottom)
 Mach =   0.000     Re =     0.100 e 6     Ncrit =   9.000

  alpha     CL        CD       CDp       Cm    Top Xtr Bot Xtr   Cpmin    Chinge    XCp    
 ------- -------- --------- --------- -------- ------- ------- -------- --------- ---------
  -8.000  -0.5258   0.06331   0.05850  -0.0504  1.0000  0.0661  -2.3925   0.0000   0.1466
  -7.000  -0.5811   0.04582   0.04003  -0.0408  1.0000  0.0491  -2.8288   0.0000   0.1730
  -6.000  -0.5491   0.03309   0.02540  -0.0330  1.0000  0.0405  -2.9717   0.0000   0.1835
  -5.000  -0.4710   0.02570   0.01686  -0.0284  1.0000  0.0370  -2.7583   0.0000   0.1834
  -4.000  -0.3864   0.02194   0.01272  -0.0249  1.0000  0.0365  -2.3992   0.0000   0.1797
  -3.000  -0.2261   0.02008   0.01036  -0.0358  0.9770  0.0501  -1.8378   0.0000   0.0847
  -2.000  -0.0693   0.01781   0.01047  -0.0464  0.9406  0.5568  -1.2204   0.0000  -0.4329
  -1.000   0.0704   0.01766   0.01105  -0.0479  0.9001  0.8690  -0.5753   0.0000   0.9365
   0.000   0.2907   0.01725   0.01027  -0.0662  0.8653  0.9848  -0.6210   0.0000   0.4769
   1.000   0.4216   0.01640   0.00913  -0.0683  0.8124  1.0000  -0.7590   0.0000   0.4098
   2.000   0.5153   0.01576   0.00827  -0.0624  0.7534  1.0000  -0.8938   0.0000   0.3679
   3.000   0.6098   0.01571   0.00803  -0.0572  0.6870  1.0000  -1.0485   0.0000   0.3397
   4.000   0.7077   0.01611   0.00815  -0.0529  0.6133  1.0000  -1.2418   0.0000   0.3197
   5.000   0.8042   0.01715   0.00902  -0.0491  0.5350  1.0000  -1.4644   0.0000   0.3050
   6.000   0.8977   0.01861   0.01033  -0.0453  0.4549  1.0000  -1.7649   0.0000   0.2933
   7.000   0.9881   0.02054   0.01218  -0.0415  0.3786  1.0000  -2.2606   0.0000   0.2838
   8.000   1.0755   0.02302   0.01454  -0.0378  0.3095  1.0000  -2.8277   0.0000   0.2757
   9.000   1.1508   0.02559   0.01731  -0.0329  0.2433  1.0000  -3.5760   0.0000   0.2678
  10.000   1.2132   0.02872   0.02068  -0.0270  0.1862  1.0000  -4.3116   0.0000   0.2600
  11.000   1.2476   0.03228   0.02438  -0.0187  0.1380  1.0000  -4.9571   0.0000   0.2511
  12.000   1.2580   0.03811   0.03068  -0.0109  0.0981  1.0000  -5.4504   0.0000   0.2431
  13.000   1.2485   0.04827   0.04115  -0.0060  0.0681  1.0000  -5.7306   0.0000   0.2374
  14.000   1.2405   0.06060   0.05389  -0.0041  0.0536  1.0000  -5.9251   0.0000   0.2340


