XFLR5 v6.09.04 release candidate

 Calculated polar for: Cularis 5deg

 1 1 Reynolds number fixed          Mach number fixed         

 xtrf =   1.000 (top)        1.000 (bottom)
 Mach =   0.000     Re =     0.200 e 6     Ncrit =   9.000

  alpha     CL        CD       CDp       Cm    Top Xtr Bot Xtr   Cpmin    Chinge    XCp    
 ------- -------- --------- --------- -------- ------- ------- -------- --------- ---------
  -7.000  -0.4265   0.03019   0.02380  -0.0691  0.9839  0.0345  -3.0275   0.0000   0.0788
  -6.000  -0.2822   0.02318   0.01570  -0.0759  0.9699  0.0274  -2.6686   0.0000  -0.0305
  -5.000  -0.1385   0.02039   0.01253  -0.0825  0.9548  0.0249  -2.1173   0.0000  -0.3635
  -4.000   0.0052   0.01923   0.01094  -0.0887  0.9335  0.0265  -1.5035   0.0000  17.5109
  -3.000   0.1633   0.01747   0.01027  -0.0982  0.9146  0.3086  -0.8621   0.0000   0.8593
  -2.000   0.2899   0.01658   0.01002  -0.1004  0.8868  0.5143  -0.5559   0.0000   0.5987
  -1.000   0.4332   0.01553   0.00941  -0.1041  0.8647  0.6706  -0.6854   0.0000   0.4902
   0.000   0.5549   0.01395   0.00798  -0.1027  0.8321  0.7500  -0.8201   0.0000   0.4339
   1.000   0.6701   0.01162   0.00640  -0.0997  0.7866  1.0000  -0.9781   0.0000   0.3965
   3.000   0.8954   0.01167   0.00519  -0.0971  0.5656  1.0000  -1.3835   0.0000   0.3542
   4.000   0.9872   0.01311   0.00637  -0.0935  0.4755  1.0000  -1.6210   0.0000   0.3394
   5.000   1.0704   0.01481   0.00769  -0.0886  0.3808  1.0000  -2.0346   0.0000   0.3263
   6.000   1.1513   0.01665   0.00931  -0.0838  0.3002  1.0000  -2.5360   0.0000   0.3151
   7.000   1.2209   0.01886   0.01128  -0.0776  0.2216  1.0000  -3.1336   0.0000   0.3046
   8.000   1.2887   0.02134   0.01369  -0.0717  0.1630  1.0000  -3.8912   0.0000   0.2953
   9.000   1.3494   0.02441   0.01677  -0.0654  0.1180  1.0000  -4.6546   0.0000   0.2867
  10.000   1.3996   0.02834   0.02085  -0.0587  0.0769  1.0000  -5.3844   0.0000   0.2786
  11.000   1.4216   0.03475   0.02736  -0.0504  0.0383  1.0000  -5.9355   0.0000   0.2705
  12.000   1.4234   0.04354   0.03664  -0.0430  0.0259  1.0000  -6.3471   0.0000   0.2634
  13.000   1.4121   0.05529   0.04891  -0.0397  0.0192  1.0000  -6.7578   0.0000   0.2594
  14.000   1.3772   0.07315   0.06729  -0.0427  0.0154  1.0000  -7.0025   0.0000   0.2601


