XFLR5 v6.09.04 release candidate

 Calculated polar for: Cularis 5deg

 1 1 Reynolds number fixed          Mach number fixed         

 xtrf =   1.000 (top)        1.000 (bottom)
 Mach =   0.000     Re =     0.100 e 6     Ncrit =   9.000

  alpha     CL        CD       CDp       Cm    Top Xtr Bot Xtr   Cpmin    Chinge    XCp    
 ------- -------- --------- --------- -------- ------- ------- -------- --------- ---------
  -8.000  -0.5412   0.06322   0.05847  -0.0465  1.0000  0.0675  -2.4289   0.0000   0.1566
  -7.000  -0.4843   0.03716   0.02992  -0.0563  1.0000  0.0422  -2.9377   0.0000   0.1256
  -6.000  -0.3832   0.02785   0.01918  -0.0573  1.0000  0.0380  -2.7254   0.0000   0.0918
  -5.000  -0.2809   0.02382   0.01468  -0.0566  1.0000  0.0372  -2.3477   0.0000   0.0391
  -4.000  -0.1785   0.02236   0.01268  -0.0568  1.0000  0.0423  -1.9122   0.0000  -0.0793
  -3.000  -0.0261   0.02165   0.01357  -0.0679  0.9849  0.4044  -1.3499   0.0000  -2.4051
  -2.000   0.1377   0.02330   0.01588  -0.0780  0.9422  0.6700  -0.6477   0.0000   0.8224
   1.000   0.5885   0.02148   0.01420  -0.0940  0.8031  1.0000  -0.8923   0.0000   0.4075
   2.000   0.7178   0.01895   0.01175  -0.0933  0.7470  1.0000  -1.0769   0.0000   0.3768
   3.000   0.8742   0.01616   0.00873  -0.0962  0.6723  1.0000  -1.3409   0.0000   0.3559
   4.000   0.9862   0.01744   0.00960  -0.0945  0.5648  1.0000  -1.6009   0.0000   0.3406
   5.000   1.0769   0.01947   0.01138  -0.0901  0.4676  1.0000  -1.9806   0.0000   0.3273
   6.000   1.1617   0.02192   0.01356  -0.0852  0.3814  1.0000  -2.4804   0.0000   0.3159
   7.000   1.2399   0.02477   0.01639  -0.0799  0.3063  1.0000  -3.1139   0.0000   0.3056
   8.000   1.3019   0.02779   0.01934  -0.0726  0.2376  1.0000  -3.8353   0.0000   0.2956
   9.000   1.3437   0.03112   0.02301  -0.0629  0.1831  1.0000  -4.4962   0.0000   0.2852
  10.000   1.3632   0.03554   0.02757  -0.0526  0.1364  1.0000  -5.0825   0.0000   0.2754
  11.000   1.3718   0.04219   0.03470  -0.0438  0.0957  1.0000  -5.5758   0.0000   0.2671
  12.000   1.3577   0.05289   0.04572  -0.0366  0.0658  1.0000  -5.8511   0.0000   0.2603
  13.000   1.3467   0.06558   0.05884  -0.0328  0.0516  1.0000  -6.0560   0.0000   0.2558
  14.000   1.3216   0.08198   0.07607  -0.0335  0.0436  1.0000  -6.0922   0.0000   0.2548


