XFLR5 v6.09.04 release candidate

 Calculated polar for: Cularis

 1 1 Reynolds number fixed          Mach number fixed         

 xtrf =   1.000 (top)        1.000 (bottom)
 Mach =   0.000     Re =     0.200 e 6     Ncrit =   9.000

  alpha     CL        CD       CDp       Cm    Top Xtr Bot Xtr   Cpmin    Chinge    XCp    
 ------- -------- --------- --------- -------- ------- ------- -------- --------- ---------
  -6.000  -0.4696   0.02698   0.02021  -0.0477  0.9789  0.0315  -2.9746   0.0000   0.1411
  -5.000  -0.3333   0.01942   0.01178  -0.0528  0.9623  0.0260  -2.6127   0.0000   0.0837
  -4.000  -0.1821   0.01626   0.00828  -0.0606  0.9444  0.0243  -2.0003   0.0000  -0.0931
  -3.000  -0.0500   0.01466   0.00631  -0.0635  0.9171  0.0281  -1.4129   0.0000  -1.0443
  -2.000   0.0555   0.01243   0.00524  -0.0618  0.8840  0.3210  -0.8915   0.0000   1.3774
  -1.000   0.1553   0.01116   0.00473  -0.0580  0.8466  0.5561  -0.5136   0.0000   0.6249
   0.000   0.2494   0.01016   0.00446  -0.0515  0.8023  0.8103  -0.6105   0.0000   0.4552
   1.000   0.3629   0.00983   0.00406  -0.0490  0.7473  0.9323  -0.7325   0.0000   0.3824
   2.000   0.5230   0.00985   0.00378  -0.0580  0.6783  1.0000  -0.9158   0.0000   0.3575
   3.000   0.6146   0.01038   0.00396  -0.0541  0.6041  1.0000  -1.0696   0.0000   0.3336
   4.000   0.7086   0.01120   0.00449  -0.0506  0.5318  1.0000  -1.2615   0.0000   0.3161
   5.000   0.8037   0.01222   0.00531  -0.0476  0.4594  1.0000  -1.4852   0.0000   0.3029
   6.000   0.8966   0.01345   0.00632  -0.0445  0.3797  1.0000  -1.8318   0.0000   0.2923
   7.000   0.9867   0.01494   0.00765  -0.0414  0.3008  1.0000  -2.3416   0.0000   0.2834
   8.000   1.0728   0.01676   0.00931  -0.0381  0.2305  1.0000  -2.9128   0.0000   0.2758
   9.000   1.1537   0.01887   0.01138  -0.0345  0.1666  1.0000  -3.7087   0.0000   0.2689
  10.000   1.2254   0.02147   0.01398  -0.0300  0.1205  1.0000  -4.5096   0.0000   0.2620
  11.000   1.2810   0.02470   0.01740  -0.0239  0.0804  1.0000  -5.2559   0.0000   0.2546
  12.000   1.3067   0.03049   0.02326  -0.0168  0.0411  1.0000  -5.8195   0.0000   0.2472
  13.000   1.3086   0.03930   0.03252  -0.0116  0.0281  1.0000  -6.1991   0.0000   0.2414
  14.000   1.2950   0.05166   0.04540  -0.0112  0.0216  1.0000  -6.5265   0.0000   0.2391


