XFLR5 v6.09.04 release candidate

 Calculated polar for: Cularis

 1 1 Reynolds number fixed          Mach number fixed         

 xtrf =   1.000 (top)        1.000 (bottom)
 Mach =   0.000     Re =     0.500 e 6     Ncrit =   9.000

  alpha     CL        CD       CDp       Cm    Top Xtr Bot Xtr   Cpmin    Chinge    XCp    
 ------- -------- --------- --------- -------- ------- ------- -------- --------- ---------
  -8.000  -0.5221   0.04338   0.04051  -0.0666  0.9866  0.0369  -2.9271   0.0000   0.1141
  -5.000  -0.2648   0.01490   0.00891  -0.0621  0.9084  0.0301  -2.3148   0.0000   0.0063
  -4.000  -0.1656   0.01194   0.00556  -0.0579  0.8805  0.0235  -1.9036   0.0000  -0.1108
  -3.000  -0.0611   0.01015   0.00345  -0.0555  0.8506  0.0221  -1.4069   0.0000  -0.6778
   0.000   0.2576   0.00702   0.00164  -0.0510  0.7146  0.5799  -0.6206   0.0000   0.4465
   1.000   0.3665   0.00715   0.00158  -0.0499  0.6475  0.6415  -0.7385   0.0000   0.3836
   2.000   0.4649   0.00704   0.00194  -0.0465  0.5774  0.8598  -0.8754   0.0000   0.3463
   3.000   0.6159   0.00752   0.00234  -0.0542  0.4961  1.0000  -1.0770   0.0000   0.3335
   4.000   0.7075   0.00834   0.00273  -0.0507  0.4088  1.0000  -1.2692   0.0000   0.3163
   6.000   0.8987   0.01070   0.00428  -0.0459  0.2313  1.0000  -1.8929   0.0000   0.2937
   7.000   0.9946   0.01212   0.00541  -0.0440  0.1635  1.0000  -2.4231   0.0000   0.2857
   8.000   1.0850   0.01400   0.00689  -0.0415  0.0941  1.0000  -2.9932   0.0000   0.2786
   9.000   1.1558   0.01741   0.00970  -0.0367  0.0129  1.0000  -3.7196   0.0000   0.2708
  10.000   1.2382   0.01927   0.01176  -0.0333  0.0085  1.0000  -4.5634   0.0000   0.2645
  11.000   1.3011   0.02187   0.01456  -0.0276  0.0050  1.0000  -5.4356   0.0000   0.2573
  12.000   1.3494   0.02559   0.01854  -0.0217  0.0032  1.0000  -6.3098   0.0000   0.2505
  14.000   1.4188   0.03681   0.03048  -0.0140  0.0024  1.0000  -7.9049   0.0000   0.2405


