XFLR5 v6.09.04 release candidate

 Calculated polar for: Cularis -5deg

 1 1 Reynolds number fixed          Mach number fixed         

 xtrf =   1.000 (top)        1.000 (bottom)
 Mach =   0.000     Re =     0.100 e 6     Ncrit =   9.000

  alpha     CL        CD       CDp       Cm    Top Xtr Bot Xtr   Cpmin    Chinge    XCp    
 ------- -------- --------- --------- -------- ------- ------- -------- --------- ---------
  -7.000  -0.6541   0.06261   0.05752  -0.0244  1.0000  0.0661  -2.5858   0.0000   0.2066
  -6.000  -0.6550   0.04124   0.03400  -0.0185  1.0000  0.0427  -3.1164   0.0000   0.2159
  -5.000  -0.5913   0.03000   0.02175  -0.0130  1.0000  0.0384  -2.9626   0.0000   0.2226
  -4.000  -0.5473   0.02471   0.01577  -0.0027  1.0000  0.0361  -2.7638   0.0000   0.2403
  -3.000  -0.4153   0.02046   0.01112  -0.0083  0.9773  0.0367  -2.2771   0.0000   0.2254
  -2.000  -0.2543   0.01673   0.00822  -0.0190  0.9383  0.2451  -1.7200   0.0000   0.1708
   0.000   0.0251   0.01658   0.00975  -0.0196  0.8481  0.9317  -0.4797   0.0000   1.0340
   1.000   0.2031   0.01658   0.00911  -0.0303  0.7963  0.9868  -0.6019   0.0000   0.3964
   2.000   0.3204   0.01695   0.00915  -0.0317  0.7373  1.0000  -0.7318   0.0000   0.3449
   3.000   0.4108   0.01715   0.00922  -0.0274  0.6824  1.0000  -0.8616   0.0000   0.3119
   4.000   0.5026   0.01701   0.00896  -0.0229  0.6291  1.0000  -1.0157   0.0000   0.2900
   5.000   0.5942   0.01714   0.00902  -0.0186  0.5672  1.0000  -1.2004   0.0000   0.2749
   6.000   0.6843   0.01763   0.00936  -0.0142  0.5009  1.0000  -1.4140   0.0000   0.2635
   7.000   0.7703   0.01866   0.01047  -0.0096  0.4330  1.0000  -1.6887   0.0000   0.2542
   8.000   0.8500   0.02008   0.01191  -0.0042  0.3676  1.0000  -2.1409   0.0000   0.2456
   9.000   0.9228   0.02213   0.01402   0.0018  0.3079  1.0000  -2.6063   0.0000   0.2375
  10.000   0.9919   0.02440   0.01647   0.0079  0.2496  1.0000  -3.2946   0.0000   0.2302
  11.000   1.0581   0.02705   0.01923   0.0130  0.1939  1.0000  -4.0303   0.0000   0.2244
  12.000   1.1102   0.03007   0.02255   0.0183  0.1443  1.0000  -4.7346   0.0000   0.2186
  13.000   1.1284   0.03506   0.02780   0.0245  0.1037  1.0000  -5.2645   0.0000   0.2117
  14.000   1.1246   0.04459   0.03767   0.0266  0.0729  1.0000  -5.5620   0.0000   0.2078


